Version 4
SHEET 1 928 680
WIRE 32 224 -144 224
WIRE 48 224 32 224
WIRE 384 224 336 224
WIRE 528 224 384 224
WIRE 576 224 528 224
WIRE 720 224 656 224
WIRE 736 224 720 224
WIRE 864 224 736 224
WIRE -144 256 -144 224
WIRE 528 256 528 224
WIRE 864 256 864 224
WIRE 32 320 32 224
WIRE 48 320 32 320
WIRE 384 320 384 304
WIRE 384 320 336 320
WIRE 464 320 384 320
WIRE 736 320 736 304
WIRE 864 320 736 320
WIRE 384 336 384 320
WIRE 464 336 464 320
WIRE 528 336 528 320
WIRE 736 352 736 320
WIRE -144 368 -144 336
WIRE 192 400 192 384
WIRE 464 416 464 400
WIRE 464 416 384 416
WIRE 384 432 384 416
FLAG -144 368 0
FLAG 192 400 0
FLAG 384 432 0
FLAG 736 352 0
FLAG 528 336 0
FLAG 720 224 OUT
SYMBOL PowerProducts\\LT3014 192 256 R0
SYMATTR InstName U1
SYMBOL voltage -144 240 R0
WINDOW 123 0 0 Left 2
WINDOW 39 0 0 Left 2
SYMATTR InstName V1
SYMATTR Value PWL(0 0 1e-5 60)
SYMBOL res 368 208 R0
SYMATTR InstName R1
SYMATTR Value 2.5Meg
SYMBOL res 368 320 R0
SYMATTR InstName R2
SYMATTR Value 55k
SYMBOL res 720 208 R0
SYMATTR InstName Rload
SYMATTR Value 6k
SYMBOL cap 512 256 R0
SYMATTR InstName C1
SYMATTR Value 1.0µ
SYMBOL res 672 208 R90
WINDOW 0 0 56 VBottom 2
WINDOW 3 32 56 VTop 2
SYMATTR InstName R3
SYMATTR Value 10
SYMBOL cap 848 256 R0
SYMATTR InstName C2
SYMATTR Value 0.1µ
SYMBOL cap 448 336 R0
SYMATTR InstName C3
SYMATTR Value 1p
TEXT 560 400 Left 2 !.tran .01
